! SP CCSD(T) def2-TZVP CPCM(DMF)
%cpcm
surfacetype vdw_gaussian
end
%geom MaxIter 100 end
%output 
xyzfile=True 
end 
%scf 
maxiter 250 
end
%output
Print[P_Hirshfeld] = 1
end
% maxcore
4000
%pal nprocs 4
end
*xyz -1 1
  C   6.81222980128819      1.33797103979457     -0.12427735168144
  C   6.11693149211307      0.04705866502166     -0.23260168937706
  C   4.70434972844474     -0.05069061668144      0.16260726427210
  C   6.84303723639687     -1.14442016335899     -0.69035444058194
  Br  6.85040984369610     -0.55331758930025      2.81350736472596
  H   6.64934435701077      1.79406725453974     -1.11952371766758
  H   6.37367246005320      1.98858449859061      0.63977554496927
  H   7.89293067652437      1.21395379839078      0.02029709477929
  H   4.16140526357370      0.23647480642757     -0.75736468117905
  H   4.45038327650866      0.65739454807094      0.95878266157644
  H   4.41713348723567     -1.07613669139516      0.42550599084412
  H   7.24205780746050     -1.57239703536616      0.25096142608206
  H   7.68494741911992     -0.89155246141425     -1.34384877620232
  H   6.17810011973032     -1.88049309702330     -1.15510523220987
  Cl  5.44769376128292      0.46625355020661     -3.01946930440257
*
