! SP CCSD(T) def2-TZVP CPCM(Acetone)
%cpcm
surfacetype vdw_gaussian
end
%geom MaxIter 100 end
%output 
xyzfile=True 
end 
%scf 
maxiter 250 
end
%output
Print[P_Hirshfeld] = 1
end
% maxcore
4000
%pal nprocs 4
end
*xyz -1 1
  C   1.16704263071346     -1.33555225931114     -0.31414682403397
  C   -0.05035926503594     -0.71841690270413      0.28707755861638
  C   -1.40363686837720     -1.13577088518015     -0.18003588088372
  Br  0.07830395274697      1.57287837287845     -1.04045381255940
  H   2.08610895012145     -0.91776785856680      0.11463436287333
  H   1.16803468654604     -1.16789068295095     -1.40190129017961
  H   1.15233347415489     -2.42268331428485     -0.14306636771774
  H   0.04901990705754      0.03408998812241      1.05885461865168
  H   -2.19881775038190     -0.59725834754451      0.34874504475004
  H   -1.53111794415046     -2.21677964749908     -0.01870710265323
  H   -1.49522214621210     -0.94483517871681     -1.25996421194052
  Br  -0.03473962718274     -2.10479328424243      2.54342390507677
*
