! SP CCSD(T) def2-TZVP CPCM(Acetone)
%cpcm
surfacetype vdw_gaussian
end
%geom MaxIter 100 end
%output 
xyzfile=True 
end 
%scf 
maxiter 250 
end
%output
Print[P_Hirshfeld] = 1
end
% maxcore
4000
%pal nprocs 4
end
*xyz -1 1
  C   5.34841174482189     -0.21909250856250     -0.64969092834627
  C   6.39696411885791     -0.33696072435926      0.43804451318519
  C   7.28173437970596      0.86932284552241      0.53047022809800
  I   9.18361893576078      0.29319311191740     -1.18809789017185
  H   4.68771959240242     -1.09873246250738     -0.67129870615145
  H   5.82338582895592     -0.11816095514854     -1.63911584051037
  H   4.72694532064188      0.67193290420493     -0.46772199901849
  H   7.01697805362923     -1.23661866698422      0.30107574516286
  H   5.91420844226879     -0.43719781561668      1.42268977561440
  H   7.07900512063275      1.76164251995885     -0.05288659350129
  H   8.01875947044271      0.95726812696601      1.32484615868553
  Cl  5.80679141187945      2.14153956460897      2.10202425695372
*
