! SP CCSD(T) def2-TZVP CPCM(Acetone)
%cpcm
surfacetype vdw_gaussian
end
%geom MaxIter 100 end
%output 
xyzfile=True 
end 
%scf 
maxiter 250 
end
%output
Print[P_Hirshfeld] = 1
end
% maxcore
4000
%pal nprocs 4
end
*xyz -1 1
  C   5.34134631307806      0.18644400615842      0.04825471759190
  C   6.52551304900939     -0.69603968408734      0.05299714754719
  I   8.57887317609193      1.37093164224667     -0.40733210611775
  H   4.47985357346980     -0.45581223669898      0.29800728896563
  H   5.41217051053611      0.97047007850307      0.81338135301271
  H   5.16384300546846      0.63655347125898     -0.93720917633289
  H   6.86843183974407     -1.20111568519510     -0.84976732181352
  H   7.02265203219233     -0.96361821545572      0.98580249399973
  Cl  5.13643363200033     -3.04963055160524      0.41863772845979
*
