! SP CCSD(T) def2-TZVP CPCM(Acetone)
%cpcm
surfacetype vdw_gaussian
end
%geom MaxIter 100 end
%output 
xyzfile=True 
end 
%scf 
maxiter 250 
end
%output
Print[P_Hirshfeld] = 1
end
% maxcore
4000
%pal nprocs 4
end
*xyz -1 1
C   6.81195377804339      1.33669859705544     -0.12409115264081
  C   6.11596718133542      0.04566710115891     -0.23259894752560
  C   4.70302716638428     -0.05160324312650      0.16254123997303
  C   6.84158226788788     -1.14601610130547     -0.69226151128172
  Br  6.85050005803464     -0.55429554692500      2.80856313473467
  H   6.64903769411805      1.79369029504183     -1.11879110464942
  H   6.37419568570653      1.98623367511860      0.64133634386059
  H   7.89243236459460      1.21171290012729      0.02118328099120
  H   4.15984738506656      0.23512109440381     -0.75738874131454
  H   4.44981516194393      0.65615210747933      0.95923883102737
  H   4.41634402027223     -1.07689436042766      0.42657409607096
  H   7.24364804806418     -1.57497971959576      0.24708529761762
  H   7.68098297029870     -0.89175684746912     -1.34846520329168
  H   6.17569640137360     -1.88116918163514     -1.15711038096883
  Cl  5.44598528070721      0.46855587433879     -3.01760857412873
*
