! SP CCSD(T) def2-TZVP CPCM(Acetone)
%cpcm
surfacetype vdw_gaussian
end
%geom MaxIter 100 end
%output 
xyzfile=True 
end 
%scf 
maxiter 250 
end
%output
Print[P_Hirshfeld] = 1
end
% maxcore
4000
%pal nprocs 4
end
*xyz -1 1
  C   -0.76605728402645     -0.14738056245390      0.30681356232920
  Br  1.48886279657177      0.24704930205668     -0.59658881285281
  H   -0.98382019207674     -0.83286659712118     -0.50468411765517
  H   -0.98588184414704      0.90839725076008      0.19499055048275
  H   -0.32868718111582     -0.52048584034235      1.22600840398368
  Br  -3.00845629520572     -0.50613355289933      1.25145041371235
*
