! OptTS Freq PBE0 RIJCOSX D3BJ def2-SVP def2/J CPCM(DMF)
%geom
modify_internal
{ B 1 14 A } end
end
%geom
modify_internal
{ B 1 4 A } end
end
%geom
Constraints
{C 14 C}
{C 4 C}
end
end
%output 
xyzfile=True 
end 
%scf 
maxiter 250 
end
%output
Print[P_Hirshfeld] = 1
end
% maxcore
4000
%geom
Calc_Hess true
Recalc_Hess 30
Trust -0.1
MaxIter 150
end
%pal nprocs 4
end
*xyz -1 1
C    6.77839043   1.35567861  -0.20843359 
C    6.09598979   0.05204492  -0.29619176 
C    4.66886776  -0.03597737   0.06284633 
C    6.85318078  -1.16574130  -0.64740678 
Br   6.85040982  -0.55331757   2.81350726 
H    6.68609443   1.79199104  -1.21835826 
H    6.27529343   2.02844888   0.49554364 
H    7.84351775   1.24748330   0.02941206 
H    4.13005756   0.18775900  -0.87425579 
H    4.39480906   0.72165259   0.80597942 
H    4.38948578  -1.04423677   0.39184411 
H    6.40941537  -2.05946096  -0.19326659 
H    7.91519061  -1.07040362  -0.38881509 
H    6.76444722  -1.25242983  -1.74437164 
Cl   5.44769379   0.46625353  -3.01946920
*
