! OptTS Freq PBE0 RIJCOSX D3BJ def2-SVP def2/J CPCM(Acetone)
%geom
modify_internal
{ B 2 11 A } end
end
%geom
modify_internal
{ B 2 3 A } end
end
%output 
xyzfile=True 
end 
%scf 
maxiter 250 
end
%output
Print[P_Hirshfeld] = 1
end
% maxcore
4000
%geom
Calc_Hess true
Recalc_Hess 30
Trust -0.1
MaxIter 150
end
%pal nprocs 4
end
*xyz -1 1
  C   5.13256404858240     -0.19402183812454     -0.49635643549104
  C   6.36235387795983     -0.28893589094575      0.38525358767899
  C   7.07743534164049      0.99564587606444      0.60464045455102
  I   10.11113955233000      0.02354206221644     -0.90012932849194
  H   4.69224154120904     -1.18663503068095     -0.67049999294523
  H   5.38894379415073      0.24297024327507     -1.47497691349926
  H   4.36894540881260      0.44326580386111     -0.02677739799974
  H   7.12391249330070     -0.94022090974764     -0.08625388353603
  H   6.12488545474469     -0.75080144636227      1.35696926936221
  H   7.23208938111635      1.63868600412016     -0.26673090538716
  H   7.92382332851851      0.99038707097573      1.29502256213033
  Cl  5.74618819763465      2.27425399534820      1.73017770362785
*
