! SP CCSD(T) def2-TZVP CPCM(Acetone)
%cpcm
surfacetype vdw_gaussian
end
%geom MaxIter 100 end
%output 
xyzfile=True 
end 
%scf 
maxiter 250 
end
%output
Print[P_Hirshfeld] = 1
end
% maxcore
4000
%pal nprocs 4
end
*xyz -1 1
  C   -2.83443589814257      0.34156349432677      0.60791013432083
  C   -1.77940796266516      0.19670555409679     -0.47955621915518
  C   -0.41326187417069      0.60765756429434      0.02075187296000
  Br  0.97479566067299      0.26161000385141     -1.31811452783573
  H   -3.82006962851169      0.02641349023542      0.23261125855102
  H   -2.58539069626848     -0.27833322862804      1.48291853345261
  H   -2.92144451945568      1.38433077822247      0.95288369192354
  H   -1.73888537161634     -0.85088283203809     -0.81967857510174
  H   -2.05007443072217      0.80207709037375     -1.35996412570757
  H   -0.10067852335438      0.04289077819633      0.91285493496357
  H   -0.35013475327696      1.68367583408518      0.23261854101184
  Br  0.37840799751115     -1.30253852701632      3.24933448061680
*
