! SP CCSD(T) def2-TZVP CPCM(Acetone)
%cpcm
surfacetype vdw_gaussian
end
%geom MaxIter 100 end
%output 
xyzfile=True 
end 
%scf 
maxiter 250 
end
%output
Print[P_Hirshfeld] = 1
end
% maxcore
4000
%pal nprocs 4
end
*xyz -1 1
  C   1.41700288821761      0.00090613864985      0.26849819360519
  C   0.35382184878315      0.91220487798168     -0.32937538065915
  C   -0.72031643014092      1.27614019704133      0.68960266339731
  C   -0.21811286740130      0.39097389414160     -1.63415254549130
  Br  -1.11201436074547     -1.35498283038357     -1.47476873771793
  H   1.89776633357160      0.49168377337067      1.12923069410356
  H   0.96594253674738     -0.93968053573454      0.62498489674897
  H   2.19431730878892     -0.25431885252935     -0.46837280549503
  H   0.85298551269917      1.85053697348755     -0.64167184717158
  H   -1.47536472594162      1.95135111978545      0.25692923733628
  H   -1.23997894392062      0.37468616520873      1.05325096280170
  H   -0.26694639683976      1.77525416747473      1.56006326322713
  H   -0.98775537659885      1.06068161087586     -2.03889341445779
  H   0.56290447460408      0.23273962772923     -2.38831012337801
  Br  2.30476819817664      2.15184367290077      3.73633494315065
*
