! SP CCSD(T) def2-TZVP CPCM(Acetone)
%cpcm
surfacetype vdw_gaussian
end
%geom MaxIter 100 end
%output 
xyzfile=True 
end 
%scf 
maxiter 250 
end
%output
Print[P_Hirshfeld] = 1
end
% maxcore
4000
%pal nprocs 4
end
*xyz -1 1
  C   -1.72225423972797     -0.43060317531096     -0.59617525498761
  C   -0.23568444963270     -0.65754339910671     -0.54696512101846
  Br  0.75801552450217      0.97306815406782     -1.01652721003859
  H   -2.22892441760429     -1.37269563672509     -0.33055711517932
  H   -2.03414550915918      0.32689520099230      0.13654446435225
  H   -2.06131791363200     -0.11974112724272     -1.59531506927116
  H   0.10744716350727     -1.41171070762745     -1.26527914814838
  H   0.09434173493088     -0.93117137579165      0.46505641525359
  Br  -0.88491789318418     -1.67360793325553      3.10510803903768
*
