! Freq PBE0 RIJCOSX D3BJ def2-SVP def2/J CPCM(Acetone)
%geom MaxIter 100 end
%output 
xyzfile=True 
end 
%scf 
maxiter 250 
end
%output
Print[P_Hirshfeld] = 1
end
% maxcore
4000
%pal nprocs 4
end
*xyz -1 1
  C   -0.39329203470779     -2.13612586394344     -1.20869876237281
  C   -0.55496529794089     -1.13736514933627     -0.09159053279048
  C   -1.95911000985706     -1.01763761284108      0.44711518228325
  I   0.13241150226865      0.85203782616401     -0.77552160385186
  H   0.64465359124733     -2.19878681956794     -1.56611097441079
  H   -1.04541291060192     -1.91235439744443     -2.06696322626260
  H   -0.67793477571799     -3.12845580221091     -0.81562757188102
  H   0.13431176592706     -1.30994575323490      0.75376318305052
  H   -1.98628514994477     -0.36035498119015      1.32648426642358
  H   -2.27854867106139     -2.02073080656808      0.77991545875016
  H   -2.67531552642862     -0.66510338150647     -0.31125494604639
  Cl  0.59700751681740     -1.22341725832033      3.05694952710843
*
