! Opt PBE0 RIJCOSX D3BJ def2-SVP def2/J CPCM(DMF)
%geom MaxIter 100 end
%output 
xyzfile=True 
end 
%scf 
maxiter 250 
end
%output
Print[P_Hirshfeld] = 1
end
% maxcore
4000
%pal nprocs 4
end
*xyz -1 1
C     1.04168  -0.64831   1.14822
C     0.22273  -0.60499  -0.14657
C     1.16109  -0.54283  -1.35060
C    -0.65168  -1.85561  -0.22933
C    -0.62482   0.66143  -0.05459
Br   -1.75392   0.99893  -1.62705
H     0.39310  -0.68064   2.03806
H     1.67858  -1.54512   1.17624
H     1.70825   0.22198   1.25107
H     0.59380  -0.53683  -2.29396
H     1.82993  -1.41747  -1.36104
H     1.78574   0.36461  -1.32179
H    -1.25923  -1.85963  -1.14764
H    -1.33437  -1.92445   0.63300
H    -0.01755  -2.75627  -0.23487
H    -1.32546   0.61944   0.79027
H     0.00504   1.55623   0.04077
Cl    3.44837  -1.01208   3.89367
*
