! Opt PBE0 RIJCOSX D3BJ def2-SVP def2/J CPCM(Acetone)
%cpcm
surfacetype vdw_gaussian
end
%geom MaxIter 100 end
%output 
xyzfile=True 
end 
%scf 
maxiter 250 
end
%output
Print[P_Hirshfeld] = 1
end
% maxcore
4000
%pal nprocs 4
end
*xyz -1 1
C     1.40035  -0.50972  -0.82399
C     0.12001  -0.24478  -0.07013
C    -0.67977  -1.48890   0.23343
Br   -1.00360   1.03534  -1.10493
H     1.92408   0.42252  -1.07953
H     1.21397  -1.07795  -1.74831
H     2.04513  -1.09813  -0.15139
H     0.33930   0.29424   0.86032
H    -1.60790  -1.25470   0.77443
H    -0.05115  -2.11161   0.89102
H    -0.93269  -2.04436  -0.68285
Br    1.89382  -1.37812   2.74643
*
