! Opt PBE0 RIJCOSX D3BJ def2-SVP def2/J CPCM(Acetone)
%geom MaxIter 100 end
%output 
xyzfile=True 
end 
%scf 
maxiter 250 
end
%output
Print[P_Hirshfeld] = 1
end
% maxcore
4000
%pal nprocs 4
end
*xyz -1 1
C    -0.38749  -2.13295  -1.18649
C    -0.57626  -1.12766  -0.07916
C    -1.99626  -1.00924   0.41876
I     0.12209   0.85905  -0.75986
H     0.65790  -2.19465  -1.52127
H    -1.02195  -1.91386  -2.05909
H    -0.67835  -3.12368  -0.79422
H     0.09993  -1.30091   0.77732
H    -2.06851  -0.31879   1.27029
H    -2.31460  -2.00565   0.77224
H    -2.69272  -0.68973  -0.37167
Cl    0.79374  -1.30017   3.06161
*
