! Opt PBE0 RIJCOSX D3BJ def2-SVP def2/J CPCM(Acetone)
%cpcm
surfacetype vdw_gaussian
end
%geom MaxIter 100 end
%output 
xyzfile=True 
end 
%scf 
maxiter 250 
end
%output
Print[P_Hirshfeld] = 1
end
% maxcore
4000
%pal nprocs 4
end
*xyz -1 1
C    -0.57310  -1.88711   0.55640
C    -1.35834  -1.03637  -0.44250
C    -2.01581   0.14191   0.27573
C    -2.44196  -1.89376  -1.11232
C    -0.46508  -0.55869  -1.58531
Br    1.03671   0.58118  -1.04391
H    -0.02041  -2.69338   0.04792
H    -1.26464  -2.35025   1.27852
H     0.13361  -1.27041   1.13344
H    -2.53707   0.80304  -0.43596
H    -2.75753  -0.22964   1.00066
H    -1.27592   0.72963   0.84088
H    -2.00386  -2.75081  -1.64785
H    -3.13241  -2.28595  -0.34934
H    -3.03172  -1.30301  -1.83188
H    -0.00208  -1.40587  -2.10866
H    -1.03066   0.04815  -2.30474
Br    0.46667   0.82462   3.25910
*
