! Opt PBE0 RIJCOSX D3BJ def2-SVP def2/J CPCM(Acetone)
%cpcm
surfacetype vdw_gaussian
end
%geom MaxIter 100 end
%output 
xyzfile=True 
end 
%scf 
maxiter 250 
end
%output
Print[P_Hirshfeld] = 1
end
% maxcore
4000
%pal nprocs 4
end
*xyz -1 1
C    -2.76174   0.29657   0.67652
C    -1.75988   0.20079  -0.46559
C    -0.37659   0.60811  -0.01154
Br    0.94746   0.31038  -1.42846
H    -3.74280  -0.09076   0.36143
H    -2.40460  -0.28480   1.54129
H    -2.89880   1.33796   1.00925
H    -1.71994  -0.83672  -0.83623
H    -2.07518   0.82564  -1.31745
H    -0.03844   0.01903   0.85706
H    -0.30906   1.67830   0.22881
Br   -0.10101  -1.14933   3.09948
*
