! Opt PBE0 RIJCOSX D3BJ def2-SVP def2/J CPCM(Acetone)
%cpcm
surfacetype vdw_gaussian
end
%geom MaxIter 100 end
%output 
xyzfile=True 
end 
%scf 
maxiter 250 
end
%output
Print[P_Hirshfeld] = 1
end
% maxcore
4000
%pal nprocs 4
end
*xyz -1 1
C     1.43687   0.02884   0.27949
C     0.36172   0.92270  -0.32358
C    -0.70278   1.29851   0.70157
C    -0.21977   0.37797  -1.61473
Br   -1.11899  -1.36188  -1.41611
H     1.88411   0.52002   1.15859
H     1.00233  -0.92786   0.61371
H     2.23180  -0.19640  -0.44853
H     0.85223   1.85889  -0.65616
H    -1.44651   1.99149   0.27740
H    -1.23839   0.40287   1.05671
H    -0.23019   1.77360   1.57521
H    -0.99013   1.04090  -2.02945
H     0.55604   0.20075  -2.37008
Br    2.15068   1.98962   3.53931
*
